<?xml version="1.0" encoding="utf-8"?>
<!DOCTYPE population SYSTEM "http://www.matsim.org/files/dtd/population_v5.dtd">

<population>

<!-- ====================================================================== -->

	<person id="10000_1" sex="f" age="31" car_avail="always" employed="yes">




		<plan score="19.531146429365172" selected="yes">
			<act type="home" link="42145829_4" facility="5808_18" x="686346.1102999998" y="4824405.8913" end_time="08:03:32" />
			<leg mode="car" dep_time="08:03:32" trav_time="00:09:25" arr_time="08:12:57">
				<route type="links" start_link="42145829_4" end_link="238011045_1" trav_time="00:09:25" distance="4663.239155">42145829_4 237784237_0L1 237784237_0L2 237784237_0L3 42145872_0 42145868_0 9902328_0 237784206_0 237784199_1 237776036_0 237776031_0 42145866_0 42145876_0L1 42145876_0L2 42145876_0L3 9902306_0 238014176_0 238014170_0 238011050_0 238011050_1 238011045_0 238011045_1</route>
			</leg>
			<act type="work" link="238011045_1" facility="7496_16" x="685420.7783000004" y="4824038.7651" start_time="08:06:13" end_time="17:33:22" />
			<leg mode="car" dep_time="17:33:22" trav_time="00:03:49" arr_time="17:37:11">
				<route type="links" start_link="238011045_1" end_link="42145829_4" trav_time="00:03:49" distance="1054.2377599999998">238011045_1 238011045_1_r 238011045_0_r 238011043_0 238011043_1 238011043_2 42145829_0 42145829_1 42145829_2 42145829_3 42145829_4</route>
			</leg>
			<act type="home" link="42145829_4" facility="5808_18" x="686346.1102999998" y="4824405.8913" />
		</plan>


	</person>

<!-- ====================================================================== -->

	<person id="10001_1" sex="m" age="50" car_avail="always" employed="yes">





		<plan score="19.707120194709695" selected="yes">
			<act type="home" link="109283506_1" facility="5821_18" x="686463.2969000004" y="4824239.2903" end_time="08:29:03" />
			<leg mode="transit_walk" trav_time="00:06:06">
				<route type="generic" start_link="109283506_1" end_link="238011046_5" trav_time="00:06:06" distance="305.3978776181277"></route>
			</leg>
			<act type="pt interaction" link="238011046_5" x="686266.040968" y="4824111.70432" max_dur="00:00:00" />
			<leg mode="pt" trav_time="00:06:17">
				<route type="experimentalPt1" start_link="238011046_5" end_link="238011045_1" trav_time="00:06:17" distance="967.7174319999999">PT1===238011046_5_27===Line4===Line4===238011045_1_30</route>
			</leg>
			<act type="pt interaction" link="238011045_1" x="685305.954439" y="4824076.41682" max_dur="00:00:00" />
			<leg mode="transit_walk" trav_time="00:02:10">
				<route type="generic" start_link="238011045_1" end_link="238011045_2" trav_time="00:02:10" distance="109.1367216130606"></route>
			</leg>
			<act type="work" link="238011045_2" facility="7567_16" x="685227.0347999996" y="4824105.044" start_time="07:43:47" end_time="16:32:59" />
			<leg mode="transit_walk" trav_time="00:02:21">
				<route type="generic" start_link="238011045_2" end_link="238011045_1_r" trav_time="00:02:21" distance="117.83601282070532"></route>
			</leg>
			<act type="pt interaction" link="238011045_1_r" x="685315.686641" y="4824086.14902" max_dur="00:00:00" />
			<leg mode="pt" trav_time="00:05:45">
				<route type="experimentalPt1" start_link="238011045_1_r" end_link="178745915_0" trav_time="00:05:45" distance="687.845567">PT1===238011045_1_r_30===Line4_r===Line4_r===178745915_0_27</route>
			</leg>
			<act type="pt interaction" link="178745915_0" x="686278.444722" y="4824107.84264" max_dur="00:00:00" />
			<leg mode="transit_walk" trav_time="00:05:53">
				<route type="generic" start_link="178745915_0" end_link="109283506_1" trav_time="00:05:53" distance="294.87030607090605"></route>
			</leg>
			<act type="home" link="109283506_1" facility="5821_18" x="686463.2969000004" y="4824239.2903" />
		</plan>

	</person>

<!-- ====================================================================== -->

	<person id="10002_1" sex="f" age="34" car_avail="always" employed="no">


		<plan score="25.18561646038779" selected="yes">
			<act type="home" link="42145829_4" facility="5808_18" x="686346.1102999998" y="4824405.8913" end_time="18:08:50" />
			<leg mode="transit_walk" trav_time="00:07:55">
				<route type="generic" start_link="42145829_4" end_link="238011046_5" trav_time="00:07:55" distance="396.3552199072598"></route>
			</leg>
			<act type="pt interaction" link="238011046_5" x="686266.040968" y="4824111.70432" max_dur="00:00:00" />
			<leg mode="pt" trav_time="00:08:14">
				<route type="experimentalPt1" start_link="238011046_5" end_link="9907866_2" trav_time="00:08:14" distance="1877.73553">PT1===238011046_5_27===Line4===Line4===9907866_2_31</route>
			</leg>
			<act type="pt interaction" link="9907866_2" x="684864.12008" y="4824496.7168" max_dur="00:00:00" />
			<leg mode="transit_walk" trav_time="00:06:40">
				<route type="generic" start_link="9907866_2" end_link="86865647_4" trav_time="00:06:40" distance="333.57302214000646"></route>
			</leg>
			<act type="secondary" link="86865647_4" facility="7801_16" x="684695.2248" y="4824303.545399999" start_time="19:53:26" end_time="19:57:28" />
			<leg mode="transit_walk" trav_time="00:07:43">
				<route type="generic" start_link="86865647_4" end_link="238014166_0_r" trav_time="00:07:43" distance="386.3364768087011"></route>
			</leg>
			<act type="pt interaction" link="238014166_0_r" x="684883.488336" y="4824073.60209" max_dur="00:00:00" />
			<leg mode="pt" trav_time="00:03:48">
				<route type="experimentalPt1" start_link="238014166_0_r" end_link="178745915_0" trav_time="00:03:48" distance="1289.2236219999998">PT1===238014166_0_r_29===Line4_r===Line4_r===178745915_0_27</route>
			</leg>
			<act type="pt interaction" link="178745915_0" x="686278.444722" y="4824107.84264" max_dur="00:00:00" />
			<leg mode="transit_walk" trav_time="00:07:56">
				<route type="generic" start_link="178745915_0" end_link="42145829_4" trav_time="00:07:56" distance="397.3231200844518"></route>
			</leg>
			<act type="home" link="42145829_4" facility="5808_18" x="686346.1102999998" y="4824405.8913" />
		</plan>




	</person>

<!-- ====================================================================== -->

	<person id="10003_1" sex="f" age="41" car_avail="always" employed="yes">





		<plan score="19.3104108685471" selected="yes">
			<act type="home" link="109283506_1" facility="5810_18" x="686457.5027000001" y="4824397.363" end_time="09:08:17" />
			<leg mode="car" dep_time="09:08:17" trav_time="00:01:48" arr_time="09:10:05">
				<route type="links" start_link="109283506_1" end_link="83468753_0" trav_time="00:01:48" distance="2191.858288">109283506_1 238011046_1 238011046_2 238011046_3 238011046_4 238011046_5 238011046_6 238011050_0 238011050_1 238011045_0 238011045_1 238011045_2 238014166_0 238014166_1 238014189_0 238014189_1 238011044_0 238011047_0 83468753_0</route>
			</leg>
			<act type="work" link="83468753_0" facility="7781_16" x="684259.8415000001" y="4824124.749299999" start_time="07:44:31" end_time="18:01:41" />
			<leg mode="car" dep_time="18:01:41" trav_time="00:07:34" arr_time="18:09:15">
				<route type="links" start_link="83468753_0" end_link="109283506_1" trav_time="00:07:34" distance="3433.532153">83468753_0 83468753_1 9904776_0 9904441_0 9903487_2 83468748_0 95139628_0 238011049_0 238014189_1_r 238014189_0_r 238014166_1_r 238014166_0_r 238011045_2_r 238011045_1_r 238011045_0_r 238011043_0 9908032_1_r 9908032_0_r 9905598_0 9905598_1 86865859_0_r 42145878_0 42145877_0 109283506_1</route>
			</leg>
			<act type="home" link="109283506_1" facility="5810_18" x="686457.5027000001" y="4824397.363" />
		</plan>

	</person>

<!-- ====================================================================== -->

	<person id="10004_1" sex="f" age="35" car_avail="always" employed="yes">





		<plan score="19.26108440947359" selected="yes">
			<act type="home" link="42145877_1L1" facility="1575_18" x="686664.9104000004" y="4824589.509299999" end_time="08:22:25" />
			<leg mode="car" dep_time="08:01:29" trav_time="00:09:31" arr_time="08:11:00">
				<route type="links" start_link="42145877_1L1" end_link="86865647_2" trav_time="00:09:31" distance="3411.7271870000004">42145877_1L1 42145877_1L2 42145877_1_rL1 42145877_1_rL2 42145877_0_r 42145878_0_r 86865859_0 86865859_1L1 86865859_1L2 86865859_2 86865859_3L1 86865859_3L2 9903821_0_r 86865647_2</route>
			</leg>
			<act type="work" link="86865647_2" facility="7775_16" x="684230.8488999996" y="4824223.843" start_time="07:15:57" end_time="16:32:57" />
			<leg mode="car" dep_time="17:30:55" trav_time="00:04:59" arr_time="17:35:54">
				<route type="links" start_link="86865647_2" end_link="42145877_1L1" trav_time="00:04:59" distance="2793.078455">86865647_2 86865647_3 86865647_4 9907866_1_r 9907812_0 9907812_1L1 9907812_1L2 9905598_0_r 9908032_0 9908032_1 238011043_1 238011043_2 178745915_0 178745915_1 178745915_2 178745915_3 178745915_4 109283505_3 109283506_1_r 42145877_1L1</route>
			</leg>
			<act type="home" link="42145877_1L1" facility="1575_18" x="686664.9104000004" y="4824589.509299999" />
		</plan>

	</person>

<!-- ====================================================================== -->

	<person id="10005_1" sex="m" age="70" car_avail="always" employed="no">



		<plan score="24.879915770293408" selected="yes">
			<act type="home" link="42145877_1L1" facility="1574_18" x="686738.5410000002" y="4824574.2083" end_time="09:17:19" />
			<leg mode="car" dep_time="09:17:19" trav_time="00:04:13" arr_time="09:21:32">
				<route type="links" start_link="42145877_1L1" end_link="42145626_0" trav_time="00:04:13" distance="5502.83818">42145877_1L1 42145877_1L2 42145877_1_rL1 42145877_1_rL2 109283506_1 238011046_1 238011046_2 42145835_0 42145835_1 42145835_2 42145835_3 238014165_1 238014192_1L1 238014192_1L2 238014192_1L3 42145573_0 42145613_0 42145586_0 42145579_0 42145579_1 237173999_0L1 237173999_0L2 237174001_0 237174001_1L1 237174001_1L2 42145627_0 42145626_0</route>
			</leg>
			<act type="secondary" link="42145626_0" facility="19777_20" x="684776.6004999997" y="4820627.680500001" start_time="10:34:46" end_time="11:03:12" />
			<leg mode="car" dep_time="11:03:12" trav_time="00:04:58" arr_time="11:08:10">
				<route type="links" start_link="42145626_0" end_link="42145877_1L1" trav_time="00:04:58" distance="7898.927955000002">42145626_0 237172238_0L1 237172238_0L2 9902193_0 237170093_0 143011830_0 237170714_0 143012104_1 394918430_0 237172237_0L1 237172237_0L2 237172217_0 42145642_0 42145650_0 237173994_0L1 237173994_0L2 237173964_0 237173991_0 237173995_0 42145617_0 42145618_0 42145599_0 42145610_0L1 42145610_0L2 237784216_0 9902290_0 238014173_0 9902638_0 178745915_4 109283505_3 109283506_1_r 42145877_1L1</route>
			</leg>
			<act type="home" link="42145877_1L1" facility="1574_18" x="686738.5410000002" y="4824574.2083" />
		</plan>



	</person>

<!-- ====================================================================== -->

	<person id="10006_1" sex="m" age="32" car_avail="always" employed="yes">

		<plan score="19.585849169046085" selected="yes">
			<act type="home" link="109283506_1" facility="5810_18" x="686457.5027000001" y="4824397.363" end_time="08:33:47" />
			<leg mode="transit_walk" trav_time="00:08:56">
				<route type="generic" start_link="109283506_1" end_link="238011046_5" trav_time="00:08:56" distance="447.0534922279832"></route>
			</leg>
			<act type="pt interaction" link="238011046_5" x="686266.040968" y="4824111.70432" max_dur="00:00:00" />
			<leg mode="pt" trav_time="00:05:16">
				<route type="experimentalPt1" start_link="238011046_5" end_link="238011045_1" trav_time="00:05:16" distance="967.7174319999999">PT1===238011046_5_27===Line4===Line4===238011045_1_30</route>
			</leg>
			<act type="pt interaction" link="238011045_1" x="685305.954439" y="4824076.41682" max_dur="00:00:00" />
			<leg mode="transit_walk" trav_time="00:04:32">
				<route type="generic" start_link="238011045_1" end_link="9903867_1" trav_time="00:04:32" distance="226.7595345480153"></route>
			</leg>
			<act type="work" link="9903867_1" facility="21558_16" x="685234.5421000002" y="4823917.274599999" start_time="07:42:08" end_time="17:41:29" />
			<leg mode="transit_walk" trav_time="00:04:52">
				<route type="generic" start_link="9903867_1" end_link="238011045_1_r" trav_time="00:04:52" distance="243.56535177957457"></route>
			</leg>
			<act type="pt interaction" link="238011045_1_r" x="685315.686641" y="4824086.14902" max_dur="00:00:00" />
			<leg mode="pt" trav_time="00:02:38">
				<route type="experimentalPt1" start_link="238011045_1_r" end_link="178745915_0" trav_time="00:02:38" distance="687.845567">PT1===238011045_1_r_30===Line4_r===Line4_r===178745915_0_27</route>
			</leg>
			<act type="pt interaction" link="178745915_0" x="686278.444722" y="4824107.84264" max_dur="00:00:00" />
			<leg mode="transit_walk" trav_time="00:08:51">
				<route type="generic" start_link="178745915_0" end_link="109283506_1" trav_time="00:08:51" distance="442.54222306361885"></route>
			</leg>
			<act type="home" link="109283506_1" facility="5810_18" x="686457.5027000001" y="4824397.363" />
		</plan>





	</person>

<!-- ====================================================================== -->

	<person id="10007_1" sex="f" age="34" car_avail="always" employed="no">

		<plan score="25.106014505945605" selected="yes">
			<act type="home" link="109283506_1" facility="5810_18" x="686457.5027000001" y="4824397.363" end_time="09:38:10" />
			<leg mode="car" dep_time="09:38:10" trav_time="00:02:25" arr_time="09:40:35">
				<route type="links" start_link="109283506_1" end_link="123170970_1" trav_time="00:02:25" distance="2647.788961">109283506_1 238011046_1 238011046_2 238011046_3 238011046_4 238011046_5 238011046_6 238011050_0 238011050_1 238011045_0 238011045_1 238011045_2 238014166_0 238014167_1 238014193_0 238014193_1 83468743_0 83468744_0 123170969_0 9906635_0 123170970_1</route>
			</leg>
			<act type="secondary" link="123170970_1" facility="11285_17" x="684552.5933999997" y="4823418.1788" start_time="10:41:30" end_time="11:21:04" />
			<leg mode="car" dep_time="11:21:04" trav_time="00:02:39" arr_time="11:23:43">
				<route type="links" start_link="123170970_1" end_link="109283506_1" trav_time="00:02:39" distance="2716.4625469999996">123170970_1 83468744_1_r 83468744_0_r 83468743_0_r 238014193_1_r 238014193_0_r 238014167_1_r 238014166_0_r 238011045_2_r 238011045_1_r 238011045_0_r 238011043_0 238011043_1 238011043_2 178745915_0 178745915_1 178745915_2 178745915_3 178745915_4 109283505_3 109283506_1_r 109283506_1</route>
			</leg>
			<act type="home" link="109283506_1" facility="5810_18" x="686457.5027000001" y="4824397.363" />
		</plan>





	</person>

<!-- ====================================================================== -->

	<person id="10007_2" sex="m" age="32" car_avail="never" employed="no">





		<plan score="25.482457002216538" selected="yes">
			<act type="home" link="109283506_1" facility="5810_18" x="686457.5027000001" y="4824397.363" end_time="10:10:12" />
			<leg mode="transit_walk" trav_time="00:08:56">
				<route type="generic" start_link="109283506_1" end_link="238011046_5" trav_time="00:08:56" distance="447.0534922279832"></route>
			</leg>
			<act type="pt interaction" link="238011046_5" x="686266.040968" y="4824111.70432" max_dur="00:00:00" />
			<leg mode="pt" trav_time="00:04:51">
				<route type="experimentalPt1" start_link="238011046_5" end_link="238014166_0" trav_time="00:04:51" distance="1373.0106899999998">PT1===238011046_5_27===Line4===Line4===238014166_0_29</route>
			</leg>
			<act type="pt interaction" link="238014166_0" x="684873.77388" y="4824063.88763" max_dur="00:00:00" />
			<leg mode="transit_walk" trav_time="00:02:37">
				<route type="generic" start_link="238014166_0" end_link="9903438_0" trav_time="00:02:37" distance="131.6524157644357"></route>
			</leg>
			<act type="secondary" link="9903438_0" facility="7843_16" x="684920.9753999999" y="4824153.4859" start_time="10:11:25" end_time="12:01:03" />
			<leg mode="transit_walk" trav_time="00:02:17">
				<route type="generic" start_link="9903438_0" end_link="238014166_0_r" trav_time="00:02:17" distance="114.71498674482963"></route>
			</leg>
			<act type="pt interaction" link="238014166_0_r" x="684883.488336" y="4824073.60209" max_dur="00:00:00" />
			<leg mode="pt" trav_time="00:05:39">
				<route type="experimentalPt1" start_link="238014166_0_r" end_link="178745915_0" trav_time="00:05:39" distance="1289.2236219999998">PT1===238014166_0_r_29===Line4_r===Line4_r===178745915_0_27</route>
			</leg>
			<act type="pt interaction" link="178745915_0" x="686278.444722" y="4824107.84264" max_dur="00:00:00" />
			<leg mode="transit_walk" trav_time="00:08:51">
				<route type="generic" start_link="178745915_0" end_link="109283506_1" trav_time="00:08:51" distance="442.54222306361885"></route>
			</leg>
			<act type="home" link="109283506_1" facility="5810_18" x="686457.5027000001" y="4824397.363" />
		</plan>

	</person>

<!-- ====================================================================== -->

	<person id="10008_1" sex="m" age="42" car_avail="always" employed="yes">

		<plan score="19.774983930256262" selected="yes">
			<act type="home" link="109283506_1" facility="5810_18" x="686457.5027000001" y="4824397.363" end_time="08:18:18" />
			<leg mode="transit_walk" trav_time="00:08:56">
				<route type="generic" start_link="109283506_1" end_link="238011046_5" trav_time="00:08:56" distance="447.0534922279832"></route>
			</leg>
			<act type="pt interaction" link="238011046_5" x="686266.040968" y="4824111.70432" max_dur="00:00:00" />
			<leg mode="pt" trav_time="00:06:45">
				<route type="experimentalPt1" start_link="238011046_5" end_link="238014166_0" trav_time="00:06:45" distance="1373.0106899999998">PT1===238011046_5_27===Line4===Line4===238014166_0_29</route>
			</leg>
			<act type="pt interaction" link="238014166_0" x="684873.77388" y="4824063.88763" max_dur="00:00:00" />
			<leg mode="transit_walk" trav_time="00:01:17">
				<route type="generic" start_link="238014166_0" end_link="238014167_0" trav_time="00:01:17" distance="64.75720069257011"></route>
			</leg>
			<act type="work" link="238014167_0" facility="21586_16" x="684847.2319" y="4824106.0407" start_time="07:34:33" end_time="17:40:06" />
			<leg mode="transit_walk" trav_time="00:01:15">
				<route type="generic" start_link="238014167_0" end_link="238014166_0_r" trav_time="00:01:15" distance="63.24460011350173"></route>
			</leg>
			<act type="pt interaction" link="238014166_0_r" x="684883.488336" y="4824073.60209" max_dur="00:00:00" />
			<leg mode="pt" trav_time="00:07:38">
				<route type="experimentalPt1" start_link="238014166_0_r" end_link="178745915_0" trav_time="00:07:38" distance="1289.2236219999998">PT1===238014166_0_r_29===Line4_r===Line4_r===178745915_0_27</route>
			</leg>
			<act type="pt interaction" link="178745915_0" x="686278.444722" y="4824107.84264" max_dur="00:00:00" />
			<leg mode="transit_walk" trav_time="00:08:51">
				<route type="generic" start_link="178745915_0" end_link="109283506_1" trav_time="00:08:51" distance="442.54222306361885"></route>
			</leg>
			<act type="home" link="109283506_1" facility="5810_18" x="686457.5027000001" y="4824397.363" />
		</plan>





	</person>

<!-- ====================================================================== -->

	<person id="10008_2" sex="f" age="39" car_avail="never" employed="yes">

		<plan score="19.09449316136219" selected="yes">
			<act type="home" link="109283506_1" facility="5810_18" x="686457.5027000001" y="4824397.363" end_time="07:28:32" />
			<leg mode="transit_walk" trav_time="00:08:56">
				<route type="generic" start_link="109283506_1" end_link="238011046_5" trav_time="00:08:56" distance="447.0534922279832"></route>
			</leg>
			<act type="pt interaction" link="238011046_5" x="686266.040968" y="4824111.70432" max_dur="00:00:00" />
			<leg mode="pt" trav_time="00:06:31">
				<route type="experimentalPt1" start_link="238011046_5" end_link="238014166_0" trav_time="00:06:31" distance="1373.0106899999998">PT1===238011046_5_27===Line4===Line4===238014166_0_29</route>
			</leg>
			<act type="pt interaction" link="238014166_0" x="684873.77388" y="4824063.88763" max_dur="00:00:00" />
			<leg mode="transit_walk" trav_time="00:09:55">
				<route type="generic" start_link="238014166_0" end_link="238011044_0" trav_time="00:09:55" distance="496.58345044737877"></route>
			</leg>
			<act type="work" link="238011044_0" facility="8037_16" x="684492.2336999997" y="4824082.363700001" start_time="07:43:32" end_time="17:15:38" />
			<leg mode="transit_walk" trav_time="00:08:10">
				<route type="generic" start_link="238011044_0" end_link="83468748_0" trav_time="00:08:10" distance="408.9330142090351"></route>
			</leg>
			<act type="pt interaction" link="83468748_0" x="684203.759961" y="4823956.93116" max_dur="00:00:00" />
			<leg mode="pt" trav_time="00:02:11">
				<route type="experimentalPt1" start_link="83468748_0" end_link="238014166_1_r" trav_time="00:02:11" distance="528.504291">PT1===83468748_0_72===Line3_r===Line3_r===238014166_1_r_29</route>
			</leg>
			<act type="pt interaction" link="238014166_1_r" x="684869.215604" y="4824073.07767" max_dur="00:00:00" />
			<leg mode="transit_walk" trav_time="00:00:22">
				<route type="generic" start_link="238014166_1_r" end_link="238014166_0_r" trav_time="00:00:22" distance="446.6627515057473"></route>
			</leg>
			<act type="pt interaction" link="238014166_0_r" x="684883.488336" y="4824073.60209" max_dur="00:00:00" />
			<leg mode="pt" trav_time="00:07:37">
				<route type="experimentalPt1" start_link="238014166_0_r" end_link="178745915_0" trav_time="00:07:37" distance="1289.2236219999998">PT1===238014166_0_r_29===Line4_r===Line4_r===178745915_0_27</route>
			</leg>
			<act type="pt interaction" link="178745915_0" x="686278.444722" y="4824107.84264" max_dur="00:00:00" />
			<leg mode="transit_walk" trav_time="00:08:51">
				<route type="generic" start_link="178745915_0" end_link="109283506_1" trav_time="00:08:51" distance="442.54222306361885"></route>
			</leg>
			<act type="home" link="109283506_1" facility="5810_18" x="686457.5027000001" y="4824397.363" />
		</plan>





	</person>

<!-- ====================================================================== -->

	<person id="10008_3" sex="f" age="19" car_avail="always" employed="yes">
		<plan score="19.601411297872527" selected="yes">
			<act type="home" link="109283506_1" facility="5810_18" x="686457.5027000001" y="4824397.363" end_time="09:06:45" />
			<leg mode="transit_walk" trav_time="00:08:56">
				<route type="generic" start_link="109283506_1" end_link="238011046_5" trav_time="00:08:56" distance="447.0534922279832"></route>
			</leg>
			<act type="pt interaction" link="238011046_5" x="686266.040968" y="4824111.70432" max_dur="00:00:00" />
			<leg mode="pt" trav_time="00:03:18">
				<route type="experimentalPt1" start_link="238011046_5" end_link="238014166_0" trav_time="00:03:18" distance="1373.0106899999998">PT1===238011046_5_27===Line4===Line4===238014166_0_29</route>
			</leg>
			<act type="pt interaction" link="238014166_0" x="684873.77388" y="4824063.88763" max_dur="00:00:00" />
			<leg mode="transit_walk" trav_time="00:02:08">
				<route type="generic" start_link="238014166_0" end_link="9903438_0" trav_time="00:02:08" distance="106.79336613581692"></route>
			</leg>
			<act type="work" link="9903438_0" facility="21572_16" x="684850.8986999998" y="4824142.7872" start_time="07:57:14" end_time="17:55:19" />
			<leg mode="transit_walk" trav_time="00:01:59">
				<route type="generic" start_link="9903438_0" end_link="238014166_0_r" trav_time="00:01:59" distance="99.41952452292371"></route>
			</leg>
			<act type="pt interaction" link="238014166_0_r" x="684883.488336" y="4824073.60209" max_dur="00:00:00" />
			<leg mode="pt" trav_time="00:06:41">
				<route type="experimentalPt1" start_link="238014166_0_r" end_link="178745915_0" trav_time="00:06:41" distance="1289.2236219999998">PT1===238014166_0_r_29===Line4_r===Line4_r===178745915_0_27</route>
			</leg>
			<act type="pt interaction" link="178745915_0" x="686278.444722" y="4824107.84264" max_dur="00:00:00" />
			<leg mode="transit_walk" trav_time="00:08:51">
				<route type="generic" start_link="178745915_0" end_link="109283506_1" trav_time="00:08:51" distance="442.54222306361885"></route>
			</leg>
			<act type="home" link="109283506_1" facility="5810_18" x="686457.5027000001" y="4824397.363" />
		</plan>






	</person>

<!-- ====================================================================== -->

	<person id="10009_1" sex="f" age="54" car_avail="always" employed="yes">




		<plan score="19.330850709045944" selected="yes">
			<act type="home" link="42145829_4" facility="5809_18" x="686395.3629999999" y="4824429.8456" end_time="08:56:42" />
			<leg mode="car" dep_time="08:00:22" trav_time="00:13:39" arr_time="08:14:01">
				<route type="links" start_link="42145829_4" end_link="9903654_0" trav_time="00:13:39" distance="6671.504083">42145829_4 237784237_0L1 237784237_0L2 237784237_0L3 42145872_0 42145868_0 9902328_0 237784198_0 109283506_0L1 109283506_0L2 109283506_0L3 109283506_1 109283505_3_r 109283505_2_r 42145569_0_r 42145564_0_r 9906406_3_r 9906406_2_rL1 9906406_2_rL2 9906406_1_r 9903867_1_r 238011045_2 238014166_0 238014167_0_r 9903438_0_r 9907866_0 9907866_1 86865647_4_r 86865647_3_r 9903654_0_r 9903654_0</route>
			</leg>
			<act type="work" link="9903654_0" facility="7780_16" x="684335.0083999997" y="4824179.903000001" start_time="07:56:53" end_time="17:56:59" />
			<leg mode="car" dep_time="17:37:07" trav_time="00:02:55" arr_time="17:40:02">
				<route type="links" start_link="9903654_0" end_link="42145829_4" trav_time="00:02:55" distance="2133.615258">9903654_0 86865647_3 86865647_4 9907866_1_r 9907812_0 9907812_1L1 9907812_1L2 9905598_0_r 9908032_0 9908032_1 238011043_1 238011043_2 42145829_0 42145829_1 42145829_2 42145829_3 42145829_4</route>
			</leg>
			<act type="home" link="42145829_4" facility="5809_18" x="686395.3629999999" y="4824429.8456" />
		</plan>


	</person>

<!-- ====================================================================== -->

	<person id="1000_1" sex="m" age="55" car_avail="always" employed="yes">



		<plan score="19.443876126000173" selected="yes">
			<act type="home" link="237784216_0" facility="10065_18" x="686225.8847000003" y="4823563.306600001" end_time="08:28:50" />
			<leg mode="car" dep_time="08:28:50" trav_time="00:05:11" arr_time="08:34:01">
				<route type="links" start_link="237784216_0" end_link="9903867_1" trav_time="00:05:11" distance="1329.4516649999998">237784216_0 9902290_0 238014173_0 238014175_0 238014175_1 238014175_2 238014175_3 238011046_6 238011050_0 238011050_1 238011045_0 238011045_1 9903867_1</route>
			</leg>
			<act type="work" link="9903867_1" facility="7497_16" x="685313.4549000002" y="4824037.0033" start_time="07:34:54" end_time="17:18:14" />
			<leg mode="car" dep_time="17:18:14" trav_time="00:06:57" arr_time="17:25:11">
				<route type="links" start_link="9903867_1" end_link="237784216_0" trav_time="00:06:57" distance="4950.747031">9903867_1 9906406_0_r 238014193_1 83468743_0 83468744_0 83468744_1 83468744_2 83468744_3 83468744_4 83468744_5 236382043_0_rL1 236382043_0_rL2 236382032_0_r 42145615_0_r 42145616_0_r 86865173_3_r 237173992_0 237173992_1 237173991_0 237173995_0 42145617_0 42145618_0 42145599_0 42145610_0L1 42145610_0L2 237784216_0</route>
			</leg>
			<act type="home" link="237784216_0" facility="10065_18" x="686225.8847000003" y="4823563.306600001" />
		</plan>



	</person>

<!-- ====================================================================== -->

	<person id="1000_2" sex="f" age="57" car_avail="always" employed="yes">




		<plan score="19.346190203526128" selected="yes">
			<act type="home" link="237784216_0" facility="10065_18" x="686225.8847000003" y="4823563.306600001" end_time="09:25:24" />
			<leg mode="car" dep_time="08:21:59" trav_time="00:01:39" arr_time="08:23:38">
				<route type="links" start_link="237784216_0" end_link="236382037_0" trav_time="00:01:39" distance="2203.988117">237784216_0 9902290_0 238014173_0 238014175_0 238014175_1 238014175_2 238014175_3 238011046_6 238011050_0 238011050_1 238011045_0 238011045_1 238011045_2 238014166_0 238014166_1 238014189_0 238014189_1 238011044_0 9905659_1 236382037_0</route>
			</leg>
			<act type="work" link="236382037_0" facility="7795_16" x="684411.7571999999" y="4823988.7259" start_time="07:36:27" end_time="17:55:29" />
			<leg mode="car" dep_time="17:23:37" trav_time="00:04:30" arr_time="17:28:07">
				<route type="links" start_link="236382037_0" end_link="237784216_0" trav_time="00:04:30" distance="5312.697734">236382037_0 236382037_0_r 238011049_0 238014189_1_r 9905485_1 238014193_1 83468743_0 83468744_0 83468744_1 83468744_2 83468744_3 83468744_4 83468744_5 236382043_0_rL1 236382043_0_rL2 236382032_0_r 42145615_0_r 42145616_0_r 86865173_3_r 237173992_0 237173992_1 237173991_0 237173995_0 42145617_0 42145618_0 42145599_0 42145610_0L1 42145610_0L2 237784216_0</route>
			</leg>
			<act type="home" link="237784216_0" facility="10065_18" x="686225.8847000003" y="4823563.306600001" />
		</plan>


	</person>

<!-- ====================================================================== -->

	<person id="10010_1" sex="f" age="53" car_avail="never" employed="yes">



		<plan score="18.917420469023075" selected="yes">
			<act type="home" link="42145877_1L1" facility="1574_18" x="686738.5410000002" y="4824574.2083" end_time="09:21:21" />
			<leg mode="transit_walk" trav_time="00:17:11">
				<route type="generic" start_link="42145877_1L1" end_link="238011046_5" trav_time="00:17:11" distance="859.5410972539639"></route>
			</leg>
			<act type="pt interaction" link="238011046_5" x="686266.040968" y="4824111.70432" max_dur="00:00:00" />
			<leg mode="pt" trav_time="00:06:27">